data_cif

_audit_creation_method             'generated by GULP'

_symmetry_space_group_name_H-M     'P 1'
_symmetry_Int_Tables_number        1
_symmetry_cell_setting             triclinic

_cell_length_a                       25.8320
_cell_length_b                       25.8320
_cell_length_c                       25.8320
_cell_angle_alpha                   90.0000
_cell_angle_beta                    90.0000
_cell_angle_gamma                   90.0000

loop_
_atom_site_label
_atom_site_fract_x
_atom_site_fract_y
_atom_site_fract_z
_atom_site_occupancy
  Zn1         0.29226      0.20727      0.20727  1.0000
  O2          0.27865      0.22088      0.13274  1.0000
  C3          0.24953      0.25000      0.10967  1.0000
  C3          0.24952      0.25000      0.05258  1.0000
  C3          0.21747      0.28208      0.02603  1.0000
  H4          0.19143      0.30815      0.04608  1.0000
  C3          0.21747      0.28208      0.97399  1.0000
  H4          0.19143      0.30816      0.95395  1.0000
  C3          0.24951      0.24999      0.94744  1.0000
  C3          0.28155      0.21789      0.97398  1.0000
  H4          0.30759      0.19181      0.95394  1.0000
  C3          0.28156      0.21790      0.02603  1.0000
  H4          0.30760      0.19182      0.04607  1.0000
  C3          0.24951      0.24998      0.89035  1.0000
  O2          0.22039      0.27912      0.86728  1.0000
  Zn1         0.20679      0.29272      0.79273  1.0000
  O2          0.13225      0.27911      0.77913  1.0000
  C3          0.10917      0.24999      0.75000  1.0000
  C3          0.05208      0.24998      0.75001  1.0000
  C3          0.02554      0.21793      0.71793  1.0000
  H4          0.04558      0.19187      0.69186  1.0000
  C3          0.97349      0.21792      0.71794  1.0000
  H4          0.95345      0.19187      0.69186  1.0000
  C3          0.94694      0.24997      0.75002  1.0000
  C3          0.97349      0.28202      0.78210  1.0000
  H4          0.95344      0.30806      0.80818  1.0000
  C3          0.02553      0.28203      0.78210  1.0000
  H4          0.04558      0.30806      0.80818  1.0000
  C3          0.88985      0.24996      0.75002  1.0000
  O2          0.86678      0.22084      0.72089  1.0000
  Zn1         0.79225      0.20724      0.70729  1.0000
  O2          0.77864      0.22085      0.63276  1.0000
  C3          0.74952      0.24998      0.60969  1.0000
  C3          0.74951      0.24998      0.55259  1.0000
  C3          0.71747      0.28206      0.52605  1.0000
  H4          0.69142      0.30813      0.54609  1.0000
  C3          0.71747      0.28207      0.47400  1.0000
  H4          0.69143      0.30814      0.45396  1.0000
  C3          0.74951      0.24998      0.44745  1.0000
  C3          0.78155      0.21788      0.47400  1.0000
  H4          0.80758      0.19179      0.45396  1.0000
  C3          0.78155      0.21789      0.52605  1.0000
  H4          0.80759      0.19181      0.54609  1.0000
  C3          0.74951      0.24998      0.39036  1.0000
  O2          0.77864      0.22085      0.36729  1.0000
  Zn1         0.79225      0.20725      0.29275  1.0000
  O2          0.77865      0.13272      0.27914  1.0000
  C3          0.74952      0.10965      0.25001  1.0000
  C3          0.74952      0.05255      0.25002  1.0000
  C3          0.71745      0.02601      0.21796  1.0000
  H4          0.69139      0.04605      0.19189  1.0000
  C3          0.71745      0.97396      0.21796  1.0000
  H4          0.69140      0.95392      0.19189  1.0000
  C3          0.74952      0.94742      0.25002  1.0000
  C3          0.78158      0.97396      0.28209  1.0000
  H4          0.80764      0.95391      0.30815  1.0000
  C3          0.78158      0.02601      0.28209  1.0000
  H4          0.80764      0.04605      0.30816  1.0000
  C3          0.74952      0.89033      0.25001  1.0000
  O2          0.72039      0.86726      0.22088  1.0000
  Zn1         0.70678      0.79272      0.20728  1.0000
  O2          0.63225      0.77911      0.22088  1.0000
  C3          0.60917      0.74999      0.25001  1.0000
  C3          0.55208      0.74999      0.25002  1.0000
  C3          0.52554      0.71793      0.28208  1.0000
  H4          0.54558      0.69187      0.30814  1.0000
  C3          0.47349      0.71793      0.28208  1.0000
  H4          0.45344      0.69188      0.30814  1.0000
  C3          0.44695      0.75000      0.25001  1.0000
  C3          0.47349      0.78206      0.21795  1.0000
  H4          0.45346      0.80814      0.19189  1.0000
  C3          0.52554      0.78206      0.21795  1.0000
  H4          0.54559      0.80812      0.19189  1.0000
  C3          0.38985      0.75000      0.25001  1.0000
  O2          0.36678      0.77913      0.22089  1.0000
  Zn1         0.29224      0.79273      0.20728  1.0000
  O2          0.27864      0.86726      0.22089  1.0000
  C3          0.24951      0.89033      0.25001  1.0000
  C3          0.24952      0.94743      0.25001  1.0000
  C3          0.21746      0.97397      0.28208  1.0000
  H4          0.19140      0.95393      0.30814  1.0000
  C3          0.21746      0.02602      0.28208  1.0000
  H4          0.19141      0.04606      0.30815  1.0000
  C3          0.24951      0.05257      0.25001  1.0000
  C3          0.28157      0.02602      0.21793  1.0000
  H4          0.30761      0.04606      0.19185  1.0000
  C3          0.28157      0.97397      0.21793  1.0000
  H4          0.30762      0.95393      0.19186  1.0000
  C3          0.24952      0.10966      0.25001  1.0000
  O2          0.22038      0.13273      0.27913  1.0000
  Zn1         0.20680      0.20727      0.29273  1.0000
  O2          0.13226      0.22088      0.27915  1.0000
  C3          0.10918      0.25000      0.25002  1.0000
  C3          0.05209      0.25000      0.25002  1.0000
  C3          0.02555      0.21794      0.28209  1.0000
  H4          0.04559      0.19188      0.30816  1.0000
  C3          0.97350      0.21793      0.28209  1.0000
  H4          0.95346      0.19188      0.30816  1.0000
  C3          0.94696      0.24999      0.25002  1.0000
  C3          0.97349      0.28205      0.21795  1.0000
  H4          0.95345      0.30812      0.19189  1.0000
  C3          0.02554      0.28205      0.21795  1.0000
  H4          0.04558      0.30812      0.19189  1.0000
  C3          0.88986      0.24999      0.25002  1.0000
  O2          0.86679      0.22086      0.27915  1.0000
  O2          0.86679      0.27911      0.22090  1.0000
  Zn1         0.79225      0.29271      0.20729  1.0000
  O2          0.77865      0.27910      0.13276  1.0000
  C3          0.74952      0.24998      0.10968  1.0000
  C3          0.74951      0.24998      0.05259  1.0000
  C3          0.71745      0.21791      0.02605  1.0000
  H4          0.69139      0.19185      0.04610  1.0000
  C3          0.71744      0.21792      0.97400  1.0000
  H4          0.69138      0.19185      0.95397  1.0000
  C3          0.74951      0.24998      0.94746  1.0000
  C3          0.78158      0.28204      0.97400  1.0000
  H4          0.80764      0.30810      0.95395  1.0000
  C3          0.78158      0.28204      0.02604  1.0000
  H4          0.80764      0.30810      0.04609  1.0000
  C3          0.74952      0.24997      0.89036  1.0000
  O2          0.72039      0.22085      0.86729  1.0000
  Zn1         0.70679      0.20725      0.79275  1.0000
  O2          0.72039      0.13271      0.77914  1.0000
  C3          0.74951      0.10963      0.75002  1.0000
  C3          0.74951      0.05254      0.75002  1.0000
  C3          0.71745      0.02599      0.78208  1.0000
  H4          0.69140      0.04603      0.80816  1.0000
  C3          0.71744      0.97394      0.78208  1.0000
  H4          0.69138      0.95390      0.80814  1.0000
  C3          0.74949      0.94740      0.75000  1.0000
  C3          0.78155      0.97394      0.71793  1.0000
  H4          0.80760      0.95390      0.69186  1.0000
  C3          0.78156      0.02599      0.71794  1.0000
  H4          0.80762      0.04604      0.69188  1.0000
  C3          0.74949      0.89030      0.75000  1.0000
  O2          0.77861      0.86723      0.72087  1.0000
  Zn1         0.79222      0.79270      0.70728  1.0000
  O2          0.77862      0.77909      0.63274  1.0000
  C3          0.74950      0.74996      0.60967  1.0000
  C3          0.74950      0.74996      0.55257  1.0000
  C3          0.71743      0.71790      0.52602  1.0000
  H4          0.69136      0.69185      0.54606  1.0000
  C3          0.71743      0.71791      0.47397  1.0000
  H4          0.69136      0.69186      0.45393  1.0000
  C3          0.74952      0.74997      0.44744  1.0000
  C3          0.78160      0.78201      0.47399  1.0000
  H4          0.80768      0.80805      0.45395  1.0000
  C3          0.78159      0.78201      0.52603  1.0000
  H4          0.80766      0.80805      0.54608  1.0000
  C3          0.74952      0.74997      0.39034  1.0000
  O2          0.72039      0.72085      0.36727  1.0000
  Zn1         0.70678      0.70725      0.29273  1.0000
  O2          0.72038      0.63272      0.27912  1.0000
  C3          0.74952      0.60965      0.25001  1.0000
  C3          0.74952      0.55255      0.25001  1.0000
  C3          0.71745      0.52601      0.28208  1.0000
  H4          0.69139      0.54606      0.30814  1.0000
  C3          0.71746      0.47396      0.28208  1.0000
  H4          0.69141      0.45393      0.30816  1.0000
  C3          0.74951      0.44742      0.25001  1.0000
  C3          0.78157      0.47396      0.21793  1.0000
  H4          0.80761      0.45392      0.19185  1.0000
  C3          0.78157      0.52601      0.21793  1.0000
  H4          0.80763      0.54606      0.19186  1.0000
  C3          0.74951      0.39032      0.25001  1.0000
  O2          0.77864      0.36725      0.22088  1.0000
  O2          0.72039      0.36726      0.27914  1.0000
  Zn1         0.70679      0.29272      0.29275  1.0000
  O2          0.63226      0.27910      0.27915  1.0000
  C3          0.60918      0.24998      0.25002  1.0000
  C3          0.55209      0.24999      0.25001  1.0000
  C3          0.52555      0.21791      0.21797  1.0000
  H4          0.54559      0.19182      0.19192  1.0000
  C3          0.47350      0.21791      0.21796  1.0000
  H4          0.45345      0.19183      0.19192  1.0000
  C3          0.44696      0.25001      0.25000  1.0000
  C3          0.47350      0.28210      0.28203  1.0000
  H4          0.45346      0.30819      0.30807  1.0000
  C3          0.52555      0.28209      0.28204  1.0000
  H4          0.54559      0.30818      0.30808  1.0000
  C3          0.38987      0.25000      0.25000  1.0000
  O2          0.36680      0.22088      0.22087  1.0000
  O2          0.36680      0.27913      0.27913  1.0000
  Zn1         0.29226      0.29273      0.29274  1.0000
  O2          0.27866      0.27914      0.36727  1.0000
  C3          0.24954      0.25001      0.39034  1.0000
  C3          0.24953      0.25001      0.44743  1.0000
  C3          0.21748      0.21792      0.47397  1.0000
  H4          0.19144      0.19184      0.45393  1.0000
  C3          0.21748      0.21791      0.52602  1.0000
  H4          0.19144      0.19182      0.54606  1.0000
  C3          0.24951      0.25001      0.55257  1.0000
  C3          0.28153      0.28212      0.52603  1.0000
  H4          0.30755      0.30822      0.54608  1.0000
  C3          0.28155      0.28211      0.47398  1.0000
  H4          0.30758      0.30820      0.45394  1.0000
  C3          0.24951      0.25000      0.60967  1.0000
  O2          0.22039      0.22087      0.63274  1.0000
  Zn1         0.20678      0.20726      0.70728  1.0000
  O2          0.13224      0.22086      0.72087  1.0000
  O2          0.22038      0.13272      0.72087  1.0000
  C3          0.24950      0.10965      0.75000  1.0000
  C3          0.24950      0.05256      0.75000  1.0000
  C3          0.21744      0.02602      0.71793  1.0000
  H4          0.19139      0.04606      0.69186  1.0000
  C3          0.21744      0.97397      0.71793  1.0000
  H4          0.19138      0.95392      0.69187  1.0000
  C3          0.24949      0.94742      0.75001  1.0000
  C3          0.28154      0.97397      0.78209  1.0000
  H4          0.30759      0.95393      0.80816  1.0000
  C3          0.28155      0.02601      0.78208  1.0000
  H4          0.30761      0.04606      0.80815  1.0000
  C3          0.24949      0.89033      0.75002  1.0000
  O2          0.22036      0.86725      0.72089  1.0000
  Zn1         0.20676      0.79271      0.70728  1.0000
  O2          0.13223      0.77911      0.72089  1.0000
  C3          0.10915      0.74998      0.75002  1.0000
  C3          0.05206      0.74999      0.75002  1.0000
  C3          0.02552      0.71791      0.78208  1.0000
  H4          0.04557      0.69184      0.80812  1.0000
  C3          0.97347      0.71791      0.78207  1.0000
  H4          0.95344      0.69183      0.80812  1.0000
  C3          0.94693      0.74999      0.75003  1.0000
  C3          0.97347      0.78209      0.71799  1.0000
  H4          0.95343      0.80818      0.69196  1.0000
  C3          0.02552      0.78208      0.71798  1.0000
  H4          0.04556      0.80817      0.69195  1.0000
  C3          0.88983      0.74999      0.75002  1.0000
  O2          0.86676      0.77910      0.72089  1.0000
  O2          0.86676      0.72086      0.77914  1.0000
  Zn1         0.79223      0.70725      0.79273  1.0000
  O2          0.77861      0.72083      0.86728  1.0000
  C3          0.74949      0.74996      0.89035  1.0000
  C3          0.74948      0.74996      0.94744  1.0000
  C3          0.71744      0.78204      0.97399  1.0000
  H4          0.69139      0.80813      0.95395  1.0000
  C3          0.71744      0.78205      0.02604  1.0000
  H4          0.69140      0.80813      0.04608  1.0000
  C3          0.74948      0.74996      0.05258  1.0000
  C3          0.78152      0.71787      0.02603  1.0000
  H4          0.80757      0.69179      0.04607  1.0000
  C3          0.78152      0.71787      0.97399  1.0000
  H4          0.80757      0.69179      0.95394  1.0000
  C3          0.74949      0.74997      0.10967  1.0000
  O2          0.77862      0.72084      0.13274  1.0000
  Zn1         0.79224      0.70725      0.20727  1.0000
  O2          0.86677      0.72085      0.22087  1.0000
  C3          0.88984      0.74998      0.25000  1.0000
  C3          0.94694      0.74998      0.25000  1.0000
  C3          0.97349      0.71794      0.21792  1.0000
  H4          0.95345      0.69190      0.19184  1.0000
  C3          0.02554      0.71794      0.21792  1.0000
  H4          0.04558      0.69190      0.19184  1.0000
  C3          0.05208      0.74998      0.25002  1.0000
  C3          0.02553      0.78202      0.28211  1.0000
  H4          0.04557      0.80805      0.30820  1.0000
  C3          0.97348      0.78202      0.28210  1.0000
  H4          0.95344      0.80806      0.30818  1.0000
  C3          0.10917      0.74999      0.25002  1.0000
  O2          0.13225      0.72087      0.22089  1.0000
  Zn1         0.20679      0.70727      0.20728  1.0000
  O2          0.22039      0.72088      0.13274  1.0000
  C3          0.24951      0.75001      0.10967  1.0000
  C3          0.24949      0.75001      0.05257  1.0000
  C3          0.21745      0.71792      0.02603  1.0000
  H4          0.19141      0.69184      0.04608  1.0000
  C3          0.21744      0.71791      0.97399  1.0000
  H4          0.19140      0.69182      0.95395  1.0000
  C3          0.24947      0.75001      0.94744  1.0000
  C3          0.28150      0.78212      0.97397  1.0000
  H4          0.30752      0.80821      0.95392  1.0000
  C3          0.28152      0.78211      0.02602  1.0000
  H4          0.30756      0.80820      0.04605  1.0000
  C3          0.24948      0.75000      0.89034  1.0000
  O2          0.22036      0.72086      0.86728  1.0000
  Zn1         0.20676      0.70726      0.79274  1.0000
  O2          0.22038      0.63272      0.77914  1.0000
  C3          0.24951      0.60965      0.75002  1.0000
  C3          0.24952      0.55255      0.75003  1.0000
  C3          0.21742      0.52601      0.78206  1.0000
  H4          0.19132      0.54605      0.80809  1.0000
  C3          0.21743      0.47396      0.78207  1.0000
  H4          0.19133      0.45392      0.80808  1.0000
  C3          0.24956      0.44742      0.75006  1.0000
  C3          0.28169      0.47397      0.71806  1.0000
  H4          0.30782      0.45393      0.69207  1.0000
  C3          0.28166      0.52601      0.71803  1.0000
  H4          0.30777      0.54606      0.69203  1.0000
  C3          0.24954      0.39033      0.75004  1.0000
  O2          0.22041      0.36725      0.77915  1.0000
  O2          0.27866      0.36725      0.72091  1.0000
  Zn1         0.29225      0.29272      0.70729  1.0000
  O2          0.27863      0.27913      0.63275  1.0000
  O2          0.36679      0.27909      0.72088  1.0000
  C3          0.38986      0.24996      0.75000  1.0000
  C3          0.44696      0.24996      0.75000  1.0000
  C3          0.47350      0.28200      0.71791  1.0000
  H4          0.45346      0.30805      0.69183  1.0000
  C3          0.52555      0.28201      0.71792  1.0000
  H4          0.54559      0.30805      0.69183  1.0000
  C3          0.55210      0.24998      0.75002  1.0000
  C3          0.52555      0.21796      0.78213  1.0000
  H4          0.54560      0.19194      0.80823  1.0000
  C3          0.47351      0.21794      0.78211  1.0000
  H4          0.45347      0.19192      0.80821  1.0000
  C3          0.60919      0.24998      0.75002  1.0000
  O2          0.63226      0.22085      0.77914  1.0000
  O2          0.63226      0.27911      0.72089  1.0000
  Zn1         0.70679      0.29270      0.70730  1.0000
  O2          0.72039      0.27911      0.63276  1.0000
  O2          0.72040      0.36724      0.72090  1.0000
  C3          0.74953      0.39030      0.75002  1.0000
  C3          0.74953      0.44740      0.75003  1.0000
  C3          0.71746      0.47394      0.71797  1.0000
  H4          0.69140      0.45389      0.69191  1.0000
  C3          0.71746      0.52598      0.71796  1.0000
  H4          0.69139      0.54602      0.69190  1.0000
  C3          0.74953      0.55253      0.75001  1.0000
  C3          0.78160      0.52599      0.78207  1.0000
  H4          0.80767      0.54604      0.80812  1.0000
  C3          0.78160      0.47394      0.78208  1.0000
  H4          0.80767      0.45390      0.80813  1.0000
  C3          0.74952      0.60963      0.75000  1.0000
  O2          0.72038      0.63269      0.72087  1.0000
  Zn1         0.70677      0.70723      0.70727  1.0000
  O2          0.63223      0.72083      0.72088  1.0000
  C3          0.60916      0.74997      0.75000  1.0000
  C3          0.55207      0.74997      0.75001  1.0000
  C3          0.52552      0.71790      0.71796  1.0000
  H4          0.54556      0.69183      0.69191  1.0000
  C3          0.47347      0.71791      0.71796  1.0000
  H4          0.45342      0.69183      0.69192  1.0000
  C3          0.44693      0.74999      0.75001  1.0000
  C3          0.47348      0.78208      0.78205  1.0000
  H4          0.45344      0.80816      0.80810  1.0000
  C3          0.52553      0.78206      0.78206  1.0000
  H4          0.54558      0.80813      0.80811  1.0000
  C3          0.38984      0.75000      0.75002  1.0000
  O2          0.36677      0.72087      0.72089  1.0000
  Zn1         0.29223      0.70725      0.70728  1.0000
  O2          0.27863      0.72086      0.63275  1.0000
  C3          0.24950      0.74998      0.60967  1.0000
  C3          0.24949      0.74996      0.55257  1.0000
  C3          0.21745      0.78205      0.52603  1.0000
  H4          0.19141      0.80814      0.54608  1.0000
  C3          0.21745      0.78206      0.47398  1.0000
  H4          0.19142      0.80816      0.45394  1.0000
  C3          0.24948      0.74996      0.44744  1.0000
  C3          0.28150      0.71785      0.47398  1.0000
  H4          0.30752      0.69175      0.45393  1.0000
  C3          0.28151      0.71786      0.52603  1.0000
  H4          0.30754      0.69176      0.54607  1.0000
  C3          0.24949      0.74997      0.39034  1.0000
  O2          0.22037      0.77911      0.36727  1.0000
  Zn1         0.20678      0.79273      0.29274  1.0000
  O2          0.13224      0.77912      0.27914  1.0000
  O2          0.22038      0.86726      0.27913  1.0000
  O5          0.24951      0.75000      0.25001  1.0000
  Zn1         0.29224      0.70726      0.29274  1.0000
  O2          0.27862      0.72085      0.36727  1.0000
  O2          0.27866      0.63273      0.27914  1.0000
  C3          0.24953      0.60966      0.25001  1.0000
  C3          0.24953      0.55257      0.25001  1.0000
  C3          0.21747      0.52603      0.21793  1.0000
  H4          0.19141      0.54607      0.19187  1.0000
  C3          0.21747      0.47398      0.21793  1.0000
  H4          0.19142      0.45394      0.19186  1.0000
  C3          0.24951      0.44743      0.25002  1.0000
  C3          0.28155      0.47398      0.28211  1.0000
  H4          0.30759      0.45394      0.30819  1.0000
  C3          0.28157      0.52603      0.28209  1.0000
  H4          0.30762      0.54607      0.30817  1.0000
  C3          0.24952      0.39034      0.25002  1.0000
  O2          0.22040      0.36727      0.22089  1.0000
  Zn1         0.20679      0.29273      0.20728  1.0000
  O2          0.13225      0.27913      0.22089  1.0000
  O2          0.22040      0.27913      0.13274  1.0000
  O5          0.24953      0.25000      0.25000  1.0000
  O2          0.27865      0.36727      0.27913  1.0000
  O2          0.22041      0.63274      0.22089  1.0000
  O2          0.36678      0.72087      0.27914  1.0000
  O2          0.22037      0.77911      0.63274  1.0000
  O2          0.27863      0.63272      0.72089  1.0000
  O5          0.24949      0.74999      0.75001  1.0000
  Zn1         0.29223      0.79273      0.79274  1.0000
  O2          0.27862      0.86726      0.77914  1.0000
  O2          0.27860      0.77914      0.86728  1.0000
  O2          0.36677      0.77912      0.77915  1.0000
  O2          0.63224      0.77910      0.77912  1.0000
  Zn1         0.70677      0.79270      0.79273  1.0000
  O2          0.72037      0.86723      0.77914  1.0000
  O2          0.72036      0.77909      0.86727  1.0000
  O5          0.74950      0.74996      0.75000  1.0000
  O2          0.72037      0.72083      0.63273  1.0000
  O2          0.77864      0.63271      0.77912  1.0000
  O2          0.77866      0.36723      0.77914  1.0000
  Zn1         0.79225      0.29270      0.79275  1.0000
  O2          0.77864      0.27910      0.86729  1.0000
  O5          0.74952      0.24997      0.75003  1.0000
  O2          0.86678      0.27909      0.77915  1.0000
  O2          0.36679      0.22084      0.77914  1.0000
  Zn1         0.29224      0.20725      0.79275  1.0000
  O2          0.27864      0.22086      0.86728  1.0000
  O2          0.27863      0.13272      0.77913  1.0000
  O5          0.24952      0.24999      0.75001  1.0000
  O2          0.13223      0.72085      0.77914  1.0000
  O2          0.27863      0.77914      0.13273  1.0000
  O2          0.86677      0.77910      0.27913  1.0000
  Zn1         0.79224      0.79271      0.29273  1.0000
  O2          0.77865      0.86725      0.27913  1.0000
  O2          0.77864      0.77910      0.36727  1.0000
  O5          0.74951      0.74998      0.25000  1.0000
  O2          0.77865      0.63271      0.22089  1.0000
  O2          0.72037      0.77910      0.13274  1.0000
  O2          0.22041      0.22088      0.36727  1.0000
  O2          0.63226      0.22086      0.22089  1.0000
  Zn1         0.70679      0.20726      0.20729  1.0000
  O2          0.72039      0.22087      0.13276  1.0000
  O2          0.72040      0.13272      0.22088  1.0000
  O5          0.74952      0.24998      0.25002  1.0000
  O2          0.72039      0.27911      0.36729  1.0000
  O2          0.63225      0.72086      0.27914  1.0000
  O2          0.77864      0.13270      0.72089  1.0000
  O2          0.27864      0.13273      0.22088  1.0000
